Global frequency set at 1000000000000 ticks per second
warn: No dot file generated. Please install pydot to generate the dot file and pdf.
src/mem/dram_interface.cc:690: warn: DRAM device capacity (16384 Mbytes) does not match the address range assigned (4096 Mbytes)
src/mem/dram_interface.cc:690: warn: DRAM device capacity (16384 Mbytes) does not match the address range assigned (4096 Mbytes)

1. COSSIM_PROC_NET_NODE0
HLA_GEM5 Note : FederationExecutionAlreadyExists Reason is : COSSIM_PROC_NET_NODE0. OK I can join it
announceSynchronizationPoint

2. GEM5_NODE0
HLA_GEM5 Note : FederationExecutionAlreadyExists Reason is : GLOBAL_SYNCHRONIZATION. OK I can join it
announceSynchronizationPoint
board.terminal: Listening for connections on port 3000
src/arch/riscv/isa.cc:319: info: RVV enabled, VLEN = 256 bits, ELEN = 64 bits
src/base/statistics.hh:279: warn: One of the stats is a legacy stat. Legacy stat is a stat that does not belong to any statistics::Group. Legacy stat is deprecated.
src/arch/riscv/isa.cc:319: info: RVV enabled, VLEN = 256 bits, ELEN = 64 bits
board.remote_gdb: Listening for connections on port 7001
src/arch/riscv/linux/fs_workload.cc:162: info: Loaded bootloader '/home/ntampouratzis/COSSIM/kernels/binaries/fw_jump_1.4.elf' at 0x0
src/arch/riscv/linux/fs_workload.cc:180: info: Loaded kernel '/home/ntampouratzis/COSSIM/kernels/binaries/riscv-vmlinux-6.15.4' at 0x80200000
src/arch/riscv/linux/fs_workload.cc:199: info: Loaded DTB '/home/ntampouratzis/Vitamin-V/gem5_v25.0.0.1/gem5/node0/device.dtb' at 0x87e00000
Redirecting stdout and stderr to /home/ntampouratzis/Vitamin-V/gem5_v25.0.0.1/gem5/node0/simout.txt
gem5 Simulator System.  https://www.gem5.org
gem5 is copyrighted software; use the --copyright option for details.

gem5 version 25.0.0.1
gem5 compiled Oct  1 2025 17:58:30
gem5 started Oct  1 2025 18:16:46
gem5 executing on kronos-Server, pid 726632
command line: /home/ntampouratzis/Vitamin-V/gem5_v25.0.0.1/gem5/build/RISCV/gem5.fast --listener-mode=on -r -d /home/ntampouratzis/Vitamin-V/gem5_v25.0.0.1/gem5/node0 /home/ntampouratzis/Vitamin-V/gem5_v25.0.0.1/gem5/configs/example/gem5_library/riscv-ubuntu-run.py --kernel=riscv-vmlinux-6.15.4 --disk-image=llama/llama_openssl_k_ext/riscv-ubuntu-24-04-gcc13.img --SynchTime=1us --RxPacketTime=1us --TotalNodes=2 --nodeNum=0 --etherdump=/home/ntampouratzis/Vitamin-V/gem5_v25.0.0.1/gem5/node0/ether_node0 --script=/home/ntampouratzis/Vitamin-V/gem5_v25.0.0.1/gem5/configs/boot/COSSIM/stunnel_llama/script0_stunnel_llama.rcS --cossim

src/arch/riscv/isa.cc:691: warn: Ignoring write to miscreg HPMCOUNTER03.
src/arch/riscv/isa.cc:691: warn: Ignoring write to miscreg HPMCOUNTER03.
src/arch/riscv/isa.cc:691: warn: Ignoring write to miscreg HPMCOUNTER03.
src/arch/riscv/isa.cc:691: warn: Ignoring write to miscreg HPMCOUNTER04.
src/arch/riscv/isa.cc:691: warn: Ignoring write to miscreg HPMCOUNTER04.
src/arch/riscv/isa.cc:691: warn: Ignoring write to miscreg HPMCOUNTER05.
src/arch/riscv/isa.cc:691: warn: Ignoring write to miscreg HPMCOUNTER05.
src/arch/riscv/isa.cc:691: warn: Ignoring write to miscreg HPMCOUNTER06.
src/arch/riscv/isa.cc:691: warn: Ignoring write to miscreg HPMCOUNTER06.
src/arch/riscv/isa.cc:691: warn: Ignoring write to miscreg HPMCOUNTER07.
src/arch/riscv/isa.cc:691: warn: Ignoring write to miscreg HPMCOUNTER07.
src/arch/riscv/isa.cc:691: warn: Ignoring write to miscreg HPMCOUNTER08.
src/arch/riscv/isa.cc:691: warn: Ignoring write to miscreg HPMCOUNTER08.
src/arch/riscv/isa.cc:691: warn: Ignoring write to miscreg HPMCOUNTER09.
src/arch/riscv/isa.cc:691: warn: Ignoring write to miscreg HPMCOUNTER09.
src/arch/riscv/isa.cc:691: warn: Ignoring write to miscreg HPMCOUNTER10.
src/arch/riscv/isa.cc:691: warn: Ignoring write to miscreg HPMCOUNTER10.
src/arch/riscv/isa.cc:691: warn: Ignoring write to miscreg HPMCOUNTER11.
src/arch/riscv/isa.cc:691: warn: Ignoring write to miscreg HPMCOUNTER11.
src/arch/riscv/isa.cc:691: warn: Ignoring write to miscreg HPMCOUNTER12.
src/arch/riscv/isa.cc:691: warn: Ignoring write to miscreg HPMCOUNTER12.
src/arch/riscv/isa.cc:691: warn: Ignoring write to miscreg HPMCOUNTER13.
src/arch/riscv/isa.cc:691: warn: Ignoring write to miscreg HPMCOUNTER13.
src/arch/riscv/isa.cc:691: warn: Ignoring write to miscreg HPMCOUNTER14.
src/arch/riscv/isa.cc:691: warn: Ignoring write to miscreg HPMCOUNTER14.
src/arch/riscv/isa.cc:691: warn: Ignoring write to miscreg HPMCOUNTER15.
src/arch/riscv/isa.cc:691: warn: Ignoring write to miscreg HPMCOUNTER15.
src/arch/riscv/isa.cc:691: warn: Ignoring write to miscreg HPMCOUNTER16.
src/arch/riscv/isa.cc:691: warn: Ignoring write to miscreg HPMCOUNTER16.
src/arch/riscv/isa.cc:691: warn: Ignoring write to miscreg HPMCOUNTER17.
src/arch/riscv/isa.cc:691: warn: Ignoring write to miscreg HPMCOUNTER17.
src/arch/riscv/isa.cc:691: warn: Ignoring write to miscreg HPMCOUNTER18.
src/arch/riscv/isa.cc:691: warn: Ignoring write to miscreg HPMCOUNTER18.
src/arch/riscv/isa.cc:691: warn: Ignoring write to miscreg HPMCOUNTER19.
src/arch/riscv/isa.cc:691: warn: Ignoring write to miscreg HPMCOUNTER19.
src/arch/riscv/isa.cc:691: warn: Ignoring write to miscreg HPMCOUNTER20.
src/arch/riscv/isa.cc:691: warn: Ignoring write to miscreg HPMCOUNTER20.
src/arch/riscv/isa.cc:691: warn: Ignoring write to miscreg HPMCOUNTER21.
src/arch/riscv/isa.cc:691: warn: Ignoring write to miscreg HPMCOUNTER21.
src/arch/riscv/isa.cc:691: warn: Ignoring write to miscreg HPMCOUNTER22.
src/arch/riscv/isa.cc:691: warn: Ignoring write to miscreg HPMCOUNTER22.
src/arch/riscv/isa.cc:691: warn: Ignoring write to miscreg HPMCOUNTER23.
src/arch/riscv/isa.cc:691: warn: Ignoring write to miscreg HPMCOUNTER23.
src/arch/riscv/isa.cc:691: warn: Ignoring write to miscreg HPMCOUNTER24.
src/arch/riscv/isa.cc:691: warn: Ignoring write to miscreg HPMCOUNTER24.
src/arch/riscv/isa.cc:691: warn: Ignoring write to miscreg HPMCOUNTER25.
src/arch/riscv/isa.cc:691: warn: Ignoring write to miscreg HPMCOUNTER25.
src/arch/riscv/isa.cc:691: warn: Ignoring write to miscreg HPMCOUNTER26.
src/arch/riscv/isa.cc:691: warn: Ignoring write to miscreg HPMCOUNTER26.
src/arch/riscv/isa.cc:691: warn: Ignoring write to miscreg HPMCOUNTER27.
src/arch/riscv/isa.cc:691: warn: Ignoring write to miscreg HPMCOUNTER27.
src/arch/riscv/isa.cc:691: warn: Ignoring write to miscreg HPMCOUNTER28.
src/arch/riscv/isa.cc:691: warn: Ignoring write to miscreg HPMCOUNTER28.
src/arch/riscv/isa.cc:691: warn: Ignoring write to miscreg HPMCOUNTER29.
src/arch/riscv/isa.cc:691: warn: Ignoring write to miscreg HPMCOUNTER29.
src/arch/riscv/isa.cc:691: warn: Ignoring write to miscreg HPMCOUNTER30.
src/arch/riscv/isa.cc:691: warn: Ignoring write to miscreg HPMCOUNTER30.
src/arch/riscv/isa.cc:691: warn: Ignoring write to miscreg HPMCOUNTER31.
src/arch/riscv/isa.cc:691: warn: Ignoring write to miscreg HPMCOUNTER31.
src/arch/riscv/isa.cc:691: warn: Ignoring write to miscreg HPMCOUNTER03.
src/arch/riscv/isa.cc:691: warn: Ignoring write to miscreg HPMCOUNTER03.
src/arch/riscv/isa.cc:691: warn: Ignoring write to miscreg HPMCOUNTER03.
src/arch/riscv/isa.cc:691: warn: Ignoring write to miscreg HPMCOUNTER04.
src/arch/riscv/isa.cc:691: warn: Ignoring write to miscreg HPMCOUNTER04.
src/arch/riscv/isa.cc:691: warn: Ignoring write to miscreg HPMCOUNTER05.
src/arch/riscv/isa.cc:691: warn: Ignoring write to miscreg HPMCOUNTER05.
src/arch/riscv/isa.cc:691: warn: Ignoring write to miscreg HPMCOUNTER06.
src/arch/riscv/isa.cc:691: warn: Ignoring write to miscreg HPMCOUNTER06.
src/arch/riscv/isa.cc:691: warn: Ignoring write to miscreg HPMCOUNTER07.
src/arch/riscv/isa.cc:691: warn: Ignoring write to miscreg HPMCOUNTER07.
src/arch/riscv/isa.cc:691: warn: Ignoring write to miscreg HPMCOUNTER08.
src/arch/riscv/isa.cc:691: warn: Ignoring write to miscreg HPMCOUNTER08.
src/arch/riscv/isa.cc:691: warn: Ignoring write to miscreg HPMCOUNTER09.
src/arch/riscv/isa.cc:691: warn: Ignoring write to miscreg HPMCOUNTER09.
src/arch/riscv/isa.cc:691: warn: Ignoring write to miscreg HPMCOUNTER10.
src/arch/riscv/isa.cc:691: warn: Ignoring write to miscreg HPMCOUNTER10.
src/arch/riscv/isa.cc:691: warn: Ignoring write to miscreg HPMCOUNTER11.
src/arch/riscv/isa.cc:691: warn: Ignoring write to miscreg HPMCOUNTER11.
src/arch/riscv/isa.cc:691: warn: Ignoring write to miscreg HPMCOUNTER12.
src/arch/riscv/isa.cc:691: warn: Ignoring write to miscreg HPMCOUNTER12.
src/arch/riscv/isa.cc:691: warn: Ignoring write to miscreg HPMCOUNTER13.
src/arch/riscv/isa.cc:691: warn: Ignoring write to miscreg HPMCOUNTER13.
src/arch/riscv/isa.cc:691: warn: Ignoring write to miscreg HPMCOUNTER14.
src/arch/riscv/isa.cc:691: warn: Ignoring write to miscreg HPMCOUNTER14.
src/arch/riscv/isa.cc:691: warn: Ignoring write to miscreg HPMCOUNTER15.
src/arch/riscv/isa.cc:691: warn: Ignoring write to miscreg HPMCOUNTER15.
src/arch/riscv/isa.cc:691: warn: Ignoring write to miscreg HPMCOUNTER16.
src/arch/riscv/isa.cc:691: warn: Ignoring write to miscreg HPMCOUNTER16.
src/arch/riscv/isa.cc:691: warn: Ignoring write to miscreg HPMCOUNTER17.
src/arch/riscv/isa.cc:691: warn: Ignoring write to miscreg HPMCOUNTER17.
src/arch/riscv/isa.cc:691: warn: Ignoring write to miscreg HPMCOUNTER18.
src/arch/riscv/isa.cc:691: warn: Ignoring write to miscreg HPMCOUNTER18.
src/arch/riscv/isa.cc:691: warn: Ignoring write to miscreg HPMCOUNTER19.
src/arch/riscv/isa.cc:691: warn: Ignoring write to miscreg HPMCOUNTER19.
src/arch/riscv/isa.cc:691: warn: Ignoring write to miscreg HPMCOUNTER20.
src/arch/riscv/isa.cc:691: warn: Ignoring write to miscreg HPMCOUNTER20.
src/arch/riscv/isa.cc:691: warn: Ignoring write to miscreg HPMCOUNTER21.
src/arch/riscv/isa.cc:691: warn: Ignoring write to miscreg HPMCOUNTER21.
src/arch/riscv/isa.cc:691: warn: Ignoring write to miscreg HPMCOUNTER22.
src/arch/riscv/isa.cc:691: warn: Ignoring write to miscreg HPMCOUNTER22.
src/arch/riscv/isa.cc:691: warn: Ignoring write to miscreg HPMCOUNTER23.
src/arch/riscv/isa.cc:691: warn: Ignoring write to miscreg HPMCOUNTER23.
src/arch/riscv/isa.cc:691: warn: Ignoring write to miscreg HPMCOUNTER24.
src/arch/riscv/isa.cc:691: warn: Ignoring write to miscreg HPMCOUNTER24.
src/arch/riscv/isa.cc:691: warn: Ignoring write to miscreg HPMCOUNTER25.
src/arch/riscv/isa.cc:691: warn: Ignoring write to miscreg HPMCOUNTER25.
src/arch/riscv/isa.cc:691: warn: Ignoring write to miscreg HPMCOUNTER26.
src/arch/riscv/isa.cc:691: warn: Ignoring write to miscreg HPMCOUNTER26.
src/arch/riscv/isa.cc:691: warn: Ignoring write to miscreg HPMCOUNTER27.
src/arch/riscv/isa.cc:691: warn: Ignoring write to miscreg HPMCOUNTER27.
src/arch/riscv/isa.cc:691: warn: Ignoring write to miscreg HPMCOUNTER28.
src/arch/riscv/isa.cc:691: warn: Ignoring write to miscreg HPMCOUNTER28.
src/arch/riscv/isa.cc:691: warn: Ignoring write to miscreg HPMCOUNTER29.
src/arch/riscv/isa.cc:691: warn: Ignoring write to miscreg HPMCOUNTER29.
src/arch/riscv/isa.cc:691: warn: Ignoring write to miscreg HPMCOUNTER30.
src/arch/riscv/isa.cc:691: warn: Ignoring write to miscreg HPMCOUNTER30.
src/arch/riscv/isa.cc:691: warn: Ignoring write to miscreg HPMCOUNTER31.
src/arch/riscv/isa.cc:691: warn: Ignoring write to miscreg HPMCOUNTER31.
src/dev/riscv/vio_mmio.cc:216: warn: Ignoring queue resize hint. Requested size: 16
src/arch/riscv/isa.cc:1043: warn: 1017704295000: context 1: 10000 consecutive SC failures.
src/arch/riscv/isa.cc:1043: warn: 6733066865625: context 1: 20000 consecutive SC failures.
src/arch/riscv/isa.cc:1043: warn: 7019796348125: context 0: 10000 consecutive SC failures.
src/arch/riscv/isa.cc:1043: warn: 7637888413125: context 0: 20000 consecutive SC failures.
src/arch/riscv/isa.cc:1043: warn: 7810486810000: context 0: 30000 consecutive SC failures.
src/arch/riscv/isa.cc:1043: warn: 8055689903750: context 1: 30000 consecutive SC failures.
src/arch/riscv/isa.cc:1043: warn: 8109293503125: context 0: 40000 consecutive SC failures.
src/arch/riscv/isa.cc:1043: warn: 8492185281250: context 0: 50000 consecutive SC failures.
src/arch/riscv/isa.cc:1043: warn: 9421448895000: context 1: 40000 consecutive SC failures.
src/arch/riscv/isa.cc:1043: warn: 9492127838125: context 0: 60000 consecutive SC failures.
src/arch/riscv/isa.cc:1043: warn: 10412201177500: context 0: 70000 consecutive SC failures.
src/arch/riscv/isa.cc:1043: warn: 10526295876250: context 1: 50000 consecutive SC failures.
src/arch/riscv/isa.cc:1043: warn: 11547828792500: context 0: 80000 consecutive SC failures.
src/arch/riscv/isa.cc:1043: warn: 11674488540000: context 1: 60000 consecutive SC failures.
src/arch/riscv/isa.cc:1043: warn: 12600514403125: context 0: 90000 consecutive SC failures.
src/arch/riscv/isa.cc:1043: warn: 12666013081250: context 1: 70000 consecutive SC failures.
src/arch/riscv/isa.cc:1043: warn: 13692452089375: context 1: 80000 consecutive SC failures.
src/arch/riscv/isa.cc:1043: warn: 13933763983750: context 0: 100000 consecutive SC failures.
src/arch/riscv/isa.cc:1043: warn: 14787395346875: context 1: 90000 consecutive SC failures.
src/arch/riscv/isa.cc:1043: warn: 14847695479375: context 0: 110000 consecutive SC failures.
src/arch/riscv/isa.cc:1043: warn: 15860588495000: context 0: 120000 consecutive SC failures.
src/arch/riscv/isa.cc:1043: warn: 15978971595000: context 1: 100000 consecutive SC failures.
src/arch/riscv/isa.cc:1043: warn: 16644074851250: context 0: 130000 consecutive SC failures.
src/arch/riscv/isa.cc:1043: warn: 17040638408750: context 0: 140000 consecutive SC failures.
src/arch/riscv/isa.cc:1043: warn: 17430891210625: context 0: 150000 consecutive SC failures.
src/arch/riscv/isa.cc:1043: warn: 17848011718750: context 0: 160000 consecutive SC failures.
src/arch/riscv/isa.cc:1043: warn: 18197006111250: context 1: 110000 consecutive SC failures.
src/arch/riscv/isa.cc:1043: warn: 18355455217500: context 0: 170000 consecutive SC failures.
src/arch/riscv/isa.cc:1043: warn: 18765314905000: context 0: 180000 consecutive SC failures.
src/arch/riscv/isa.cc:1043: warn: 19360185268750: context 0: 190000 consecutive SC failures.
src/arch/riscv/isa.cc:1043: warn: 19749779384375: context 0: 200000 consecutive SC failures.
src/arch/riscv/isa.cc:1043: warn: 20173221892500: context 0: 210000 consecutive SC failures.
src/arch/riscv/isa.cc:1043: warn: 20190437198125: context 1: 120000 consecutive SC failures.
src/arch/riscv/isa.cc:1043: warn: 20909224405625: context 0: 220000 consecutive SC failures.
src/arch/riscv/isa.cc:1043: warn: 21378053948750: context 0: 230000 consecutive SC failures.
src/arch/riscv/isa.cc:1043: warn: 21741135666250: context 0: 240000 consecutive SC failures.
src/arch/riscv/isa.cc:1043: warn: 22197691990000: context 1: 130000 consecutive SC failures.
src/arch/riscv/isa.cc:1043: warn: 22210502971875: context 0: 250000 consecutive SC failures.
src/arch/riscv/isa.cc:1043: warn: 22884751936875: context 0: 260000 consecutive SC failures.
src/arch/riscv/isa.cc:1043: warn: 23345331815625: context 1: 140000 consecutive SC failures.
src/arch/riscv/isa.cc:1043: warn: 23906770650625: context 0: 270000 consecutive SC failures.
src/arch/riscv/isa.cc:1043: warn: 24517255728125: context 1: 150000 consecutive SC failures.
src/arch/riscv/isa.cc:1043: warn: 25160509495000: context 0: 280000 consecutive SC failures.
src/arch/riscv/isa.cc:1043: warn: 25500457201875: context 1: 160000 consecutive SC failures.
src/arch/riscv/isa.cc:1043: warn: 25899306995000: context 0: 290000 consecutive SC failures.
src/arch/riscv/isa.cc:1043: warn: 26293736983750: context 0: 300000 consecutive SC failures.
src/arch/riscv/isa.cc:1043: warn: 26347292238750: context 0: 310000 consecutive SC failures.
src/arch/riscv/isa.cc:1043: warn: 27799854848125: context 0: 320000 consecutive SC failures.
src/arch/riscv/isa.cc:1043: warn: 29580708766250: context 1: 170000 consecutive SC failures.
src/arch/riscv/isa.cc:1043: warn: 32624380515000: context 0: 330000 consecutive SC failures.
src/arch/riscv/isa.cc:1043: warn: 33521776465000: context 1: 180000 consecutive SC failures.
src/arch/riscv/isa.cc:1043: warn: 34894173270000: context 0: 340000 consecutive SC failures.
src/arch/riscv/isa.cc:1043: warn: 35401248330625: context 1: 190000 consecutive SC failures.
src/arch/riscv/isa.cc:1043: warn: 37023157447500: context 0: 350000 consecutive SC failures.
src/arch/riscv/isa.cc:1043: warn: 37666862025000: context 1: 200000 consecutive SC failures.
src/arch/riscv/isa.cc:1043: warn: 39032179467500: context 0: 360000 consecutive SC failures.
src/arch/riscv/isa.cc:1043: warn: 39867505813125: context 1: 210000 consecutive SC failures.
src/arch/riscv/isa.cc:1043: warn: 41052340382500: context 0: 370000 consecutive SC failures.
src/arch/riscv/isa.cc:1043: warn: 41894805930625: context 1: 220000 consecutive SC failures.
src/arch/riscv/isa.cc:1043: warn: 43220733530000: context 0: 380000 consecutive SC failures.
src/arch/riscv/isa.cc:1043: warn: 43895426883125: context 1: 230000 consecutive SC failures.
src/arch/riscv/isa.cc:1043: warn: 45655033730000: context 0: 390000 consecutive SC failures.
src/arch/riscv/isa.cc:1043: warn: 45817855286875: context 1: 240000 consecutive SC failures.
src/arch/riscv/isa.cc:1043: warn: 47642825686250: context 1: 250000 consecutive SC failures.
src/arch/riscv/isa.cc:1043: warn: 48005782910000: context 0: 400000 consecutive SC failures.
